<?xml version="1.0" encoding="UTF-8"?>




<net version="1.16" junctionCornerDetail="5" limitTurnSpeed="5.50" xmlns:xsi="http://www.w3.org/2001/XMLSchema-instance" xsi:noNamespaceSchemaLocation="http://sumo.dlr.de/xsd/net_file.xsd">

    <location netOffset="0.00,0.00" convBoundary="192.84,-37.28,340.61,109.21" origBoundary="-10000000000.00,-10000000000.00,10000000000.00,10000000000.00" projParameter="!"/>

    <edge id=":J5_w0" function="walkingarea">
        <lane id=":J5_w0_0" index="0" allow="pedestrian" speed="2.78" length="14.80" width="2.00" shape="192.66,38.67 192.60,36.67 193.08,53.47 193.02,51.47"/>
    </edge>
    <edge id=":J6_0" function="internal">
        <lane id=":J6_0_0" index="0" disallow="pedestrian" speed="6.50" length="4.76" shape="262.67,53.47 262.26,51.03 261.17,49.30 260.96,49.18"/>
    </edge>
    <edge id=":J6_1" function="internal">
        <lane id=":J6_1_0" index="0" disallow="pedestrian" speed="13.89" length="21.22" shape="262.67,53.47 262.46,32.21"/>
        <lane id=":J6_1_1" index="1" disallow="pedestrian" speed="13.89" length="21.22" shape="265.87,53.40 265.66,32.23"/>
    </edge>
    <edge id=":J6_3" function="internal">
        <lane id=":J6_3_0" index="0" disallow="pedestrian" speed="9.34" length="5.22" shape="265.87,53.40 266.50,48.22"/>
    </edge>
    <edge id=":J6_16" function="internal">
        <lane id=":J6_16_0" index="0" disallow="pedestrian" speed="6.50" length="4.28" shape="260.96,49.18 259.39,48.30 256.92,48.02"/>
    </edge>
    <edge id=":J6_17" function="internal">
        <lane id=":J6_17_0" index="0" disallow="pedestrian" speed="9.34" length="14.42" shape="266.50,48.22 266.51,48.11 268.72,44.28 272.50,41.91 277.86,41.00"/>
    </edge>
    <edge id=":J6_4" function="internal">
        <lane id=":J6_4_0" index="0" disallow="pedestrian" speed="6.62" length="5.06" shape="278.05,47.40 275.47,47.83 273.65,48.95 273.49,49.21"/>
    </edge>
    <edge id=":J6_5" function="internal">
        <lane id=":J6_5_0" index="0" disallow="pedestrian" speed="13.89" length="21.13" shape="278.05,47.40 256.92,48.02"/>
        <lane id=":J6_5_1" index="1" disallow="pedestrian" speed="13.89" length="21.13" shape="277.95,44.20 256.83,44.82"/>
    </edge>
    <edge id=":J6_7" function="internal">
        <lane id=":J6_7_0" index="0" disallow="pedestrian" speed="9.23" length="5.01" shape="277.95,44.20 272.98,43.64"/>
    </edge>
    <edge id=":J6_18" function="internal">
        <lane id=":J6_18_0" index="0" disallow="pedestrian" speed="6.62" length="4.30" shape="273.49,49.21 272.58,50.75 272.27,53.24"/>
    </edge>
    <edge id=":J6_19" function="internal">
        <lane id=":J6_19_0" index="0" disallow="pedestrian" speed="9.23" length="14.71" shape="272.98,43.64 272.56,43.59 268.71,41.39 266.41,37.60 265.66,32.23"/>
    </edge>
    <edge id=":J6_8" function="internal">
        <lane id=":J6_8_0" index="0" disallow="pedestrian" speed="6.47" length="4.86" shape="272.06,32.25 272.41,34.74 273.48,36.50 273.72,36.64"/>
    </edge>
    <edge id=":J6_9" function="internal">
        <lane id=":J6_9_0" index="0" disallow="pedestrian" speed="13.89" length="21.04" shape="272.06,32.25 272.27,53.24"/>
        <lane id=":J6_9_1" index="1" disallow="pedestrian" speed="13.89" length="21.04" shape="268.86,32.24 269.07,53.32"/>
    </edge>
    <edge id=":J6_11" function="internal">
        <lane id=":J6_11_0" index="0" disallow="pedestrian" speed="9.45" length="4.68" shape="268.86,32.24 268.20,36.87"/>
    </edge>
    <edge id=":J6_20" function="internal">
        <lane id=":J6_20_0" index="0" disallow="pedestrian" speed="6.47" length="4.29" shape="273.72,36.64 275.26,37.52 277.76,37.80"/>
    </edge>
    <edge id=":J6_21" function="internal">
        <lane id=":J6_21_0" index="0" disallow="pedestrian" speed="9.45" length="15.03" shape="268.20,36.87 268.09,37.61 265.83,41.50 262.08,43.90 256.83,44.82"/>
    </edge>
    <edge id=":J6_12" function="internal">
        <lane id=":J6_12_0" index="0" disallow="pedestrian" speed="6.78" length="5.41" shape="256.64,38.42 259.18,37.97 261.00,36.79 261.33,36.21"/>
    </edge>
    <edge id=":J6_13" function="internal">
        <lane id=":J6_13_0" index="0" disallow="pedestrian" speed="13.89" length="21.13" shape="256.64,38.42 277.76,37.80"/>
        <lane id=":J6_13_1" index="1" disallow="pedestrian" speed="13.89" length="21.13" shape="256.74,41.62 277.86,41.00"/>
    </edge>
    <edge id=":J6_15" function="internal">
        <lane id=":J6_15_0" index="0" disallow="pedestrian" speed="9.25" length="5.00" shape="256.74,41.62 261.70,42.19"/>
    </edge>
    <edge id=":J6_22" function="internal">
        <lane id=":J6_22_0" index="0" disallow="pedestrian" speed="6.78" length="4.22" shape="261.33,36.21 262.09,34.87 262.46,32.21"/>
    </edge>
    <edge id=":J6_23" function="internal">
        <lane id=":J6_23_0" index="0" disallow="pedestrian" speed="9.25" length="14.41" shape="261.70,42.19 262.02,42.22 265.84,44.37 268.19,48.07 269.07,53.32"/>
    </edge>
    <edge id=":J6_c0" function="crossing" crossingEdges="-E5 E5">
        <lane id=":J6_c0_0" index="0" allow="pedestrian" speed="2.78" length="12.80" width="4.00" shape="273.82,51.21 261.02,51.51"/>
    </edge>
    <edge id=":J6_c1" function="crossing" crossingEdges="-E6 E6">
        <lane id=":J6_c1_0" index="0" allow="pedestrian" speed="2.78" length="12.80" width="4.00" shape="275.71,36.26 276.09,49.06"/>
    </edge>
    <edge id=":J6_c2" function="crossing" crossingEdges="-E7 E7">
        <lane id=":J6_c2_0" index="0" allow="pedestrian" speed="2.78" length="12.80" width="4.00" shape="260.85,34.21 273.65,34.26"/>
    </edge>
    <edge id=":J6_c3" function="crossing" crossingEdges="-E4 E4">
        <lane id=":J6_c3_0" index="0" allow="pedestrian" speed="2.78" length="12.80" width="4.00" shape="258.97,49.56 258.60,36.77"/>
    </edge>
    <edge id=":J6_w0" function="walkingarea">
        <lane id=":J6_w0_0" index="0" allow="pedestrian" speed="2.78" length="3.30" width="4.00" shape="256.97,49.62 257.03,51.62 259.07,53.56 261.07,53.51 260.93,52.29 260.57,51.30 260.00,50.53 259.21,50.00 258.20,49.69"/>
    </edge>
    <edge id=":J6_w1" function="walkingarea">
        <lane id=":J6_w1_0" index="0" allow="pedestrian" speed="2.78" length="3.49" width="4.00" shape="273.87,53.20 275.87,53.16 278.15,51.00 278.09,49.00 276.78,49.15 275.70,49.52 274.88,50.12 274.29,50.93 273.96,51.96"/>
    </edge>
    <edge id=":J6_w2" function="walkingarea">
        <lane id=":J6_w2_0" index="0" allow="pedestrian" speed="2.78" length="3.31" width="4.00" shape="277.71,36.21 277.65,34.21 275.66,32.27 273.66,32.26 273.77,33.50 274.11,34.50 274.67,35.28 275.46,35.82 276.47,36.13"/>
    </edge>
    <edge id=":J6_w3" function="walkingarea">
        <lane id=":J6_w3_0" index="0" allow="pedestrian" speed="2.78" length="3.68" width="4.00" shape="260.86,32.21 258.86,32.20 256.54,34.83 256.60,36.82 257.90,36.66 258.96,36.26 259.79,35.61 260.38,34.72 260.74,33.58"/>
    </edge>
    <edge id=":J7_w0" function="walkingarea">
        <lane id=":J7_w0_0" index="0" allow="pedestrian" speed="2.78" length="14.80" width="2.00" shape="262.41,109.36 260.41,109.41 277.21,109.01 275.21,109.06"/>
    </edge>
    <edge id=":J8_w0" function="walkingarea">
        <lane id=":J8_w0_0" index="0" allow="pedestrian" speed="2.78" length="14.80" width="2.00" shape="340.80,47.14 340.86,49.14 340.36,32.34 340.42,34.34"/>
    </edge>
    <edge id=":J9_w0" function="walkingarea">
        <lane id=":J9_w0_0" index="0" allow="pedestrian" speed="2.78" length="14.80" width="2.00" shape="273.94,-37.25 275.94,-37.25 259.14,-37.31 261.14,-37.31"/>
    </edge>

    <edge id="-E4" from="J6" to="J5" priority="-1">
        <lane id="-E4_0" index="0" allow="pedestrian" speed="13.89" length="63.97" width="2.00" shape="257.00,50.62 193.05,52.47"/>
        <lane id="-E4_1" index="1" disallow="pedestrian" speed="13.89" length="63.97" shape="256.92,48.02 192.98,49.87"/>
        <lane id="-E4_2" index="2" disallow="pedestrian" speed="13.89" length="63.97" shape="256.83,44.82 192.89,46.67"/>
    </edge>
    <edge id="-E5" from="J6" to="J7" priority="-1">
        <lane id="-E5_0" index="0" allow="pedestrian" speed="13.89" length="55.87" width="2.00" shape="274.87,53.18 276.21,109.03"/>
        <lane id="-E5_1" index="1" disallow="pedestrian" speed="13.89" length="55.87" shape="272.27,53.24 273.61,109.09"/>
        <lane id="-E5_2" index="2" disallow="pedestrian" speed="13.89" length="55.87" shape="269.07,53.32 270.41,109.17"/>
    </edge>
    <edge id="-E6" from="J6" to="J8" priority="-1">
        <lane id="-E6_0" index="0" allow="pedestrian" speed="13.89" length="62.73" width="2.00" shape="277.68,35.21 340.39,33.34"/>
        <lane id="-E6_1" index="1" disallow="pedestrian" speed="13.89" length="62.73" shape="277.76,37.80 340.47,35.94"/>
        <lane id="-E6_2" index="2" disallow="pedestrian" speed="13.89" length="62.73" shape="277.86,41.00 340.56,39.14"/>
    </edge>
    <edge id="-E7" from="J6" to="J9" priority="-1">
        <lane id="-E7_0" index="0" allow="pedestrian" speed="13.89" length="69.51" width="2.00" shape="259.86,32.20 260.14,-37.31"/>
        <lane id="-E7_1" index="1" disallow="pedestrian" speed="13.89" length="69.51" shape="262.46,32.21 262.74,-37.30"/>
        <lane id="-E7_2" index="2" disallow="pedestrian" speed="13.89" length="69.51" shape="265.66,32.23 265.94,-37.29"/>
    </edge>
    <edge id="E4" from="J5" to="J6" priority="-1">
        <lane id="E4_0" index="0" allow="pedestrian" speed="13.89" length="63.97" width="2.00" shape="192.63,37.67 256.57,35.82"/>
        <lane id="E4_1" index="1" disallow="pedestrian" speed="13.89" length="63.97" shape="192.70,40.27 256.64,38.42"/>
        <lane id="E4_2" index="2" disallow="pedestrian" speed="13.89" length="63.97" shape="192.79,43.47 256.74,41.62"/>
    </edge>
    <edge id="E5" from="J7" to="J6" priority="-1">
        <lane id="E5_0" index="0" allow="pedestrian" speed="13.89" length="55.87" width="2.00" shape="261.41,109.39 260.07,53.54"/>
        <lane id="E5_1" index="1" disallow="pedestrian" speed="13.89" length="55.87" shape="264.01,109.33 262.67,53.47"/>
        <lane id="E5_2" index="2" disallow="pedestrian" speed="13.89" length="55.87" shape="267.21,109.25 265.87,53.40"/>
    </edge>
    <edge id="E6" from="J8" to="J6" priority="-1">
        <lane id="E6_0" index="0" allow="pedestrian" speed="13.89" length="62.73" width="2.00" shape="340.83,48.14 278.12,50.00"/>
        <lane id="E6_1" index="1" disallow="pedestrian" speed="13.89" length="62.73" shape="340.75,45.54 278.05,47.40"/>
        <lane id="E6_2" index="2" disallow="pedestrian" speed="13.89" length="62.73" shape="340.66,42.34 277.95,44.20"/>
    </edge>
    <edge id="E7" from="J9" to="J6" priority="-1">
        <lane id="E7_0" index="0" allow="pedestrian" speed="13.89" length="69.51" width="2.00" shape="274.94,-37.25 274.66,32.26"/>
        <lane id="E7_1" index="1" disallow="pedestrian" speed="13.89" length="69.51" shape="272.34,-37.26 272.06,32.25"/>
        <lane id="E7_2" index="2" disallow="pedestrian" speed="13.89" length="69.51" shape="269.14,-37.27 268.86,32.24"/>
    </edge>

    <tlLogic id="J6" type="static" programID="0" offset="0">
        <phase duration="37" state="rrrrgGGgrrrrgGGgGrGr"/>
        <phase duration="5"  state="rrrrgGGgrrrrgGGgrrrr"/>
        <phase duration="3"  state="rrrryyyyrrrryyyyrrrr"/>
        <phase duration="37" state="gGGgrrrrgGGgrrrrrGrG"/>
        <phase duration="5"  state="gGGgrrrrgGGgrrrrrrrr"/>
        <phase duration="3"  state="yyyyrrrryyyyrrrrrrrr"/>
    </tlLogic>

    <junction id="J5" type="dead_end" x="192.84" y="45.07" incLanes="-E4_0 -E4_1 -E4_2" intLanes="" shape="192.84,45.07 193.08,53.47 192.84,45.07"/>
    <junction id="J6" type="traffic_light" x="267.22" y="42.92" incLanes="E5_0 E5_1 E5_2 E6_0 E6_1 E6_2 E7_0 E7_1 E7_2 E4_0 E4_1 E4_2 :J6_w1_0 :J6_w2_0 :J6_w3_0 :J6_w0_0" intLanes=":J6_16_0 :J6_1_0 :J6_1_1 :J6_17_0 :J6_18_0 :J6_5_0 :J6_5_1 :J6_19_0 :J6_20_0 :J6_9_0 :J6_9_1 :J6_21_0 :J6_22_0 :J6_13_0 :J6_13_1 :J6_23_0 :J6_c0_0 :J6_c1_0 :J6_c2_0 :J6_c3_0" shape="259.07,53.56 275.87,53.16 276.10,51.99 276.41,51.57 276.86,51.27 277.44,51.08 278.15,51.00 277.65,34.21 276.54,34.02 276.16,33.75 275.88,33.37 275.72,32.88 275.66,32.27 258.86,32.20 258.60,33.63 258.28,34.14 257.83,34.50 257.25,34.73 256.54,34.83 257.03,51.62 258.14,51.81 258.54,52.07 258.82,52.46 259.00,52.95">
        <request index="0"  response="10010000000001100000" foes="10010000000001100000" cont="1"/>
        <request index="1"  response="01011111000011100000" foes="01011111100011100000" cont="0"/>
        <request index="2"  response="01011111000011100000" foes="01011111100011100000" cont="0"/>
        <request index="3"  response="00111110011011100000" foes="00111110011011100000" cont="1"/>
        <request index="4"  response="00110000000000000000" foes="00110000011000000000" cont="1"/>
        <request index="5"  response="10100000100000001001" foes="10101000111000001111" cont="0"/>
        <request index="6"  response="10100000100000001001" foes="10101000111000001111" cont="0"/>
        <request index="7"  response="01100110100000001000" foes="01100110111000001110" cont="1"/>
        <request index="8"  response="01100110000000000000" foes="01100110000000000000" cont="1"/>
        <request index="9"  response="01011110000011110000" foes="01011110000011111000" cont="0"/>
        <request index="10" response="01011110000011110000" foes="01011110000011111000" cont="0"/>
        <request index="11" response="11001110000011100110" foes="11001110000011100110" cont="1"/>
        <request index="12" response="11000000000000000000" foes="11000000000000000110" cont="1"/>
        <request index="13" response="10100000100100001000" foes="10100000111110001110" cont="0"/>
        <request index="14" response="10100000100100001000" foes="10100000111110001110" cont="0"/>
        <request index="15" response="10010000100001101000" foes="10010000111001101110" cont="1"/>
        <request index="16" response="00000000000000000000" foes="00001000011000011111" cont="0"/>
        <request index="17" response="00000000000000000000" foes="00000110000111111000" cont="0"/>
        <request index="18" response="00000000000000000000" foes="00000001111110000110" cont="0"/>
        <request index="19" response="00000000000000000000" foes="00001111100001100001" cont="0"/>
    </junction>
    <junction id="J7" type="dead_end" x="268.81" y="109.21" incLanes="-E5_0 -E5_1 -E5_2" intLanes="" shape="268.81,109.21 277.21,109.01 268.81,109.21"/>
    <junction id="J8" type="dead_end" x="340.61" y="40.74" incLanes="-E6_0 -E6_1 -E6_2" intLanes="" shape="340.61,40.74 340.36,32.34 340.61,40.74"/>
    <junction id="J9" type="dead_end" x="267.54" y="-37.28" incLanes="-E7_0 -E7_1 -E7_2" intLanes="" shape="267.54,-37.28 259.14,-37.31 267.54,-37.28"/>

    <junction id=":J6_16_0" type="internal" x="260.96" y="49.18" incLanes=":J6_0_0" intLanes=":J6_5_0 :J6_5_1 :J6_11_0 :J6_c0_0 :J6_c3_0"/>
    <junction id=":J6_17_0" type="internal" x="266.50" y="48.22" incLanes=":J6_3_0 E7_1 E7_2" intLanes=":J6_5_0 :J6_5_1 :J6_7_0 :J6_8_0 :J6_9_0 :J6_9_1 :J6_13_0 :J6_13_1 :J6_15_0 :J6_c0_0 :J6_c1_0"/>
    <junction id=":J6_18_0" type="internal" x="273.49" y="49.21" incLanes=":J6_4_0" intLanes=":J6_9_0 :J6_9_1 :J6_15_0 :J6_c0_0 :J6_c1_0"/>
    <junction id=":J6_19_0" type="internal" x="272.98" y="43.64" incLanes=":J6_7_0 E4_1 E4_2" intLanes=":J6_1_0 :J6_1_1 :J6_3_0 :J6_9_0 :J6_9_1 :J6_11_0 :J6_12_0 :J6_13_0 :J6_13_1 :J6_c1_0 :J6_c2_0"/>
    <junction id=":J6_20_0" type="internal" x="273.72" y="36.64" incLanes=":J6_8_0" intLanes=":J6_3_0 :J6_13_0 :J6_13_1 :J6_c1_0 :J6_c2_0"/>
    <junction id=":J6_21_0" type="internal" x="268.20" y="36.87" incLanes=":J6_11_0 E5_1 E5_2" intLanes=":J6_0_0 :J6_1_0 :J6_1_1 :J6_5_0 :J6_5_1 :J6_7_0 :J6_13_0 :J6_13_1 :J6_15_0 :J6_c2_0 :J6_c3_0"/>
    <junction id=":J6_22_0" type="internal" x="261.33" y="36.21" incLanes=":J6_12_0" intLanes=":J6_1_0 :J6_1_1 :J6_7_0 :J6_c2_0 :J6_c3_0"/>
    <junction id=":J6_23_0" type="internal" x="261.70" y="42.19" incLanes=":J6_15_0 E6_1 E6_2" intLanes=":J6_1_0 :J6_1_1 :J6_3_0 :J6_4_0 :J6_5_0 :J6_5_1 :J6_9_0 :J6_9_1 :J6_11_0 :J6_c0_0 :J6_c3_0"/>

    <connection from="E4" to="-E7" fromLane="1" toLane="1" via=":J6_12_0" tl="J6" linkIndex="12" dir="r" state="o"/>
    <connection from="E4" to="-E6" fromLane="1" toLane="1" via=":J6_13_0" tl="J6" linkIndex="13" dir="s" state="o"/>
    <connection from="E4" to="-E6" fromLane="2" toLane="2" via=":J6_13_1" tl="J6" linkIndex="14" dir="s" state="o"/>
    <connection from="E4" to="-E5" fromLane="2" toLane="2" via=":J6_15_0" tl="J6" linkIndex="15" dir="l" state="o"/>
    <connection from="E5" to="-E4" fromLane="1" toLane="1" via=":J6_0_0" tl="J6" linkIndex="0" dir="r" state="o"/>
    <connection from="E5" to="-E7" fromLane="1" toLane="1" via=":J6_1_0" tl="J6" linkIndex="1" dir="s" state="o"/>
    <connection from="E5" to="-E7" fromLane="2" toLane="2" via=":J6_1_1" tl="J6" linkIndex="2" dir="s" state="o"/>
    <connection from="E5" to="-E6" fromLane="2" toLane="2" via=":J6_3_0" tl="J6" linkIndex="3" dir="l" state="o"/>
    <connection from="E6" to="-E5" fromLane="1" toLane="1" via=":J6_4_0" tl="J6" linkIndex="4" dir="r" state="o"/>
    <connection from="E6" to="-E4" fromLane="1" toLane="1" via=":J6_5_0" tl="J6" linkIndex="5" dir="s" state="o"/>
    <connection from="E6" to="-E4" fromLane="2" toLane="2" via=":J6_5_1" tl="J6" linkIndex="6" dir="s" state="o"/>
    <connection from="E6" to="-E7" fromLane="2" toLane="2" via=":J6_7_0" tl="J6" linkIndex="7" dir="l" state="o"/>
    <connection from="E7" to="-E6" fromLane="1" toLane="1" via=":J6_8_0" tl="J6" linkIndex="8" dir="r" state="o"/>
    <connection from="E7" to="-E5" fromLane="1" toLane="1" via=":J6_9_0" tl="J6" linkIndex="9" dir="s" state="o"/>
    <connection from="E7" to="-E5" fromLane="2" toLane="2" via=":J6_9_1" tl="J6" linkIndex="10" dir="s" state="o"/>
    <connection from="E7" to="-E4" fromLane="2" toLane="2" via=":J6_11_0" tl="J6" linkIndex="11" dir="l" state="o"/>

    <connection from=":J6_0" to="-E4" fromLane="0" toLane="1" via=":J6_16_0" dir="r" state="m"/>
    <connection from=":J6_16" to="-E4" fromLane="0" toLane="1" dir="r" state="m"/>
    <connection from=":J6_1" to="-E7" fromLane="0" toLane="1" dir="s" state="M"/>
    <connection from=":J6_1" to="-E7" fromLane="1" toLane="2" dir="s" state="M"/>
    <connection from=":J6_3" to="-E6" fromLane="0" toLane="2" via=":J6_17_0" dir="l" state="m"/>
    <connection from=":J6_17" to="-E6" fromLane="0" toLane="2" dir="l" state="m"/>
    <connection from=":J6_4" to="-E5" fromLane="0" toLane="1" via=":J6_18_0" dir="r" state="m"/>
    <connection from=":J6_18" to="-E5" fromLane="0" toLane="1" dir="r" state="m"/>
    <connection from=":J6_5" to="-E4" fromLane="0" toLane="1" dir="s" state="M"/>
    <connection from=":J6_5" to="-E4" fromLane="1" toLane="2" dir="s" state="M"/>
    <connection from=":J6_7" to="-E7" fromLane="0" toLane="2" via=":J6_19_0" dir="l" state="m"/>
    <connection from=":J6_19" to="-E7" fromLane="0" toLane="2" dir="l" state="m"/>
    <connection from=":J6_8" to="-E6" fromLane="0" toLane="1" via=":J6_20_0" dir="r" state="m"/>
    <connection from=":J6_20" to="-E6" fromLane="0" toLane="1" dir="r" state="m"/>
    <connection from=":J6_9" to="-E5" fromLane="0" toLane="1" dir="s" state="M"/>
    <connection from=":J6_9" to="-E5" fromLane="1" toLane="2" dir="s" state="M"/>
    <connection from=":J6_11" to="-E4" fromLane="0" toLane="2" via=":J6_21_0" dir="l" state="m"/>
    <connection from=":J6_21" to="-E4" fromLane="0" toLane="2" dir="l" state="m"/>
    <connection from=":J6_12" to="-E7" fromLane="0" toLane="1" via=":J6_22_0" dir="r" state="m"/>
    <connection from=":J6_22" to="-E7" fromLane="0" toLane="1" dir="r" state="m"/>
    <connection from=":J6_13" to="-E6" fromLane="0" toLane="1" dir="s" state="M"/>
    <connection from=":J6_13" to="-E6" fromLane="1" toLane="2" dir="s" state="M"/>
    <connection from=":J6_15" to="-E5" fromLane="0" toLane="2" via=":J6_23_0" dir="l" state="m"/>
    <connection from=":J6_23" to="-E5" fromLane="0" toLane="2" dir="l" state="m"/>

    <connection from=":J5_w0" to="E4" fromLane="0" toLane="0" dir="s" state="M"/>
    <connection from="-E4" to=":J5_w0" fromLane="0" toLane="0" dir="s" state="M"/>
    <connection from=":J6_c0" to=":J6_w0" fromLane="0" toLane="0" dir="s" state="M"/>
    <connection from=":J6_c1" to=":J6_w1" fromLane="0" toLane="0" dir="s" state="M"/>
    <connection from=":J6_c2" to=":J6_w2" fromLane="0" toLane="0" dir="s" state="M"/>
    <connection from=":J6_c3" to=":J6_w3" fromLane="0" toLane="0" dir="s" state="M"/>
    <connection from=":J6_w0" to=":J6_c3" fromLane="0" toLane="0" tl="J6" linkIndex="19" dir="s" state="M"/>
    <connection from=":J6_w0" to="-E4" fromLane="0" toLane="0" dir="s" state="M"/>
    <connection from="E5" to=":J6_w0" fromLane="0" toLane="0" dir="s" state="M"/>
    <connection from=":J6_w1" to=":J6_c0" fromLane="0" toLane="0" tl="J6" linkIndex="16" dir="s" state="M"/>
    <connection from=":J6_w1" to="-E5" fromLane="0" toLane="0" dir="s" state="M"/>
    <connection from="E6" to=":J6_w1" fromLane="0" toLane="0" dir="s" state="M"/>
    <connection from=":J6_w2" to=":J6_c1" fromLane="0" toLane="0" tl="J6" linkIndex="17" dir="s" state="M"/>
    <connection from=":J6_w2" to="-E6" fromLane="0" toLane="0" dir="s" state="M"/>
    <connection from="E7" to=":J6_w2" fromLane="0" toLane="0" dir="s" state="M"/>
    <connection from=":J6_w3" to=":J6_c2" fromLane="0" toLane="0" tl="J6" linkIndex="18" dir="s" state="M"/>
    <connection from=":J6_w3" to="-E7" fromLane="0" toLane="0" dir="s" state="M"/>
    <connection from="E4" to=":J6_w3" fromLane="0" toLane="0" dir="s" state="M"/>
    <connection from=":J7_w0" to="E5" fromLane="0" toLane="0" dir="s" state="M"/>
    <connection from="-E5" to=":J7_w0" fromLane="0" toLane="0" dir="s" state="M"/>
    <connection from=":J8_w0" to="E6" fromLane="0" toLane="0" dir="s" state="M"/>
    <connection from="-E6" to=":J8_w0" fromLane="0" toLane="0" dir="s" state="M"/>
    <connection from=":J9_w0" to="E7" fromLane="0" toLane="0" dir="s" state="M"/>
    <connection from="-E7" to=":J9_w0" fromLane="0" toLane="0" dir="s" state="M"/>
</net>
