<configuration>
    <input>
        <net-file value="111.net.xml"/>
        <route-files value="222.rou.xml"/>
    </input>
    <time>
        <begin value="0"/>
        <end value="200000"/>
    </time>
</configuration>
